AMOSTRA/CSO/_ATERRAMENTO.dss
! Aterramento do neutro (no 4) dos secundarios de BT
! Reactor de 0.5 ohm entre o no 4 e a terra (no 0).
New Reactor.NEUTRO_2204706-7500364v phases=1 bus1=2204706-7500364v.4 bus2=2204706-7500364v.0 R=0.5 X=0
New Reactor.NEUTRO_2204707-7498828v phases=1 bus1=2204707-7498828v.4 bus2=2204707-7498828v.0 R=0.5 X=0
New Reactor.NEUTRO_2204708-7498639v phases=1 bus1=2204708-7498639v.4 bus2=2204708-7498639v.0 R=0.5 X=0
New Reactor.NEUTRO_2204711-7497410v phases=1 bus1=2204711-7497410v.4 bus2=2204711-7497410v.0 R=0.5 X=0
New Reactor.NEUTRO_2204712-7497409v phases=1 bus1=2204712-7497409v.4 bus2=2204712-7497409v.0 R=0.5 X=0
New Reactor.NEUTRO_2204713-7497414v phases=1 bus1=2204713-7497414v.4 bus2=2204713-7497414v.0 R=0.5 X=0
New Reactor.NEUTRO_2204722-7499140v phases=1 bus1=2204722-7499140v.4 bus2=2204722-7499140v.0 R=0.5 X=0
New Reactor.NEUTRO_2204723-7499646v phases=1 bus1=2204723-7499646v.4 bus2=2204723-7499646v.0 R=0.5 X=0
New Reactor.NEUTRO_2204724-7498940v phases=1 bus1=2204724-7498940v.4 bus2=2204724-7498940v.0 R=0.5 X=0
New Reactor.NEUTRO_2204735-7499556v phases=1 bus1=2204735-7499556v.4 bus2=2204735-7499556v.0 R=0.5 X=0
New Reactor.NEUTRO_2204736-7497557 phases=1 bus1=2204736-7497557.4 bus2=2204736-7497557.0 R=0.5 X=0
New Reactor.NEUTRO_2204737-7498934v phases=1 bus1=2204737-7498934v.4 bus2=2204737-7498934v.0 R=0.5 X=0
New Reactor.NEUTRO_2204750-7497412v phases=1 bus1=2204750-7497412v.4 bus2=2204750-7497412v.0 R=0.5 X=0
New Reactor.NEUTRO_2204751-7499557v phases=1 bus1=2204751-7499557v.4 bus2=2204751-7499557v.0 R=0.5 X=0
New Reactor.NEUTRO_2204752-7497939v phases=1 bus1=2204752-7497939v.4 bus2=2204752-7497939v.0 R=0.5 X=0
New Reactor.NEUTRO_2204753-7498939 phases=1 bus1=2204753-7498939.4 bus2=2204753-7498939.0 R=0.5 X=0
New Reactor.NEUTRO_2204761-7497407v phases=1 bus1=2204761-7497407v.4 bus2=2204761-7497407v.0 R=0.5 X=0
New Reactor.NEUTRO_2204780-7497942 phases=1 bus1=2204780-7497942.4 bus2=2204780-7497942.0 R=0.5 X=0
New Reactor.NEUTRO_2204781-7499089v phases=1 bus1=2204781-7499089v.4 bus2=2204781-7499089v.0 R=0.5 X=0
New Reactor.NEUTRO_2204782-7497948v phases=1 bus1=2204782-7497948v.4 bus2=2204782-7497948v.0 R=0.5 X=0
New Reactor.NEUTRO_2204783-7499146v phases=1 bus1=2204783-7499146v.4 bus2=2204783-7499146v.0 R=0.5 X=0
New Reactor.NEUTRO_2204784-7499439v phases=1 bus1=2204784-7499439v.4 bus2=2204784-7499439v.0 R=0.5 X=0
New Reactor.NEUTRO_2204785-7500358v phases=1 bus1=2204785-7500358v.4 bus2=2204785-7500358v.0 R=0.5 X=0
New Reactor.NEUTRO_2204789-7498179v phases=1 bus1=2204789-7498179v.4 bus2=2204789-7498179v.0 R=0.5 X=0
New Reactor.NEUTRO_2204790-7499143v phases=1 bus1=2204790-7499143v.4 bus2=2204790-7499143v.0 R=0.5 X=0
New Reactor.NEUTRO_2204791-7499559v phases=1 bus1=2204791-7499559v.4 bus2=2204791-7499559v.0 R=0.5 X=0
New Reactor.NEUTRO_2204792-7499561v phases=1 bus1=2204792-7499561v.4 bus2=2204792-7499561v.0 R=0.5 X=0
New Reactor.NEUTRO_2204793-7499144v phases=1 bus1=2204793-7499144v.4 bus2=2204793-7499144v.0 R=0.5 X=0
New Reactor.NEUTRO_2204794-7499057v phases=1 bus1=2204794-7499057v.4 bus2=2204794-7499057v.0 R=0.5 X=0
New Reactor.NEUTRO_2204795-7500056v phases=1 bus1=2204795-7500056v.4 bus2=2204795-7500056v.0 R=0.5 X=0
New Reactor.NEUTRO_2204796-7497353v phases=1 bus1=2204796-7497353v.4 bus2=2204796-7497353v.0 R=0.5 X=0
New Reactor.NEUTRO_2204797-7497419v phases=1 bus1=2204797-7497419v.4 bus2=2204797-7497419v.0 R=0.5 X=0
New Reactor.NEUTRO_2204798-7498523v phases=1 bus1=2204798-7498523v.4 bus2=2204798-7498523v.0 R=0.5 X=0
New Reactor.NEUTRO_2204799-7500055v phases=1 bus1=2204799-7500055v.4 bus2=2204799-7500055v.0 R=0.5 X=0
New Reactor.NEUTRO_2204800-7497420v phases=1 bus1=2204800-7497420v.4 bus2=2204800-7497420v.0 R=0.5 X=0
New Reactor.NEUTRO_2204809-7497938 phases=1 bus1=2204809-7497938.4 bus2=2204809-7497938.0 R=0.5 X=0
New Reactor.NEUTRO_2204810-7497936 phases=1 bus1=2204810-7497936.4 bus2=2204810-7497936.0 R=0.5 X=0
New Reactor.NEUTRO_2204811-7498464v phases=1 bus1=2204811-7498464v.4 bus2=2204811-7498464v.0 R=0.5 X=0
New Reactor.NEUTRO_2204812-7498170v phases=1 bus1=2204812-7498170v.4 bus2=2204812-7498170v.0 R=0.5 X=0
New Reactor.NEUTRO_2204813-7500256 phases=1 bus1=2204813-7500256.4 bus2=2204813-7500256.0 R=0.5 X=0
New Reactor.NEUTRO_2204814-7498637v phases=1 bus1=2204814-7498637v.4 bus2=2204814-7498637v.0 R=0.5 X=0
New Reactor.NEUTRO_2204815-7500468 phases=1 bus1=2204815-7500468.4 bus2=2204815-7500468.0 R=0.5 X=0
New Reactor.NEUTRO_2204816-7500241 phases=1 bus1=2204816-7500241.4 bus2=2204816-7500241.0 R=0.5 X=0
New Reactor.NEUTRO_2204817-7500466v phases=1 bus1=2204817-7500466v.4 bus2=2204817-7500466v.0 R=0.5 X=0
New Reactor.NEUTRO_2204818-7498395 phases=1 bus1=2204818-7498395.4 bus2=2204818-7498395.0 R=0.5 X=0
New Reactor.NEUTRO_2204819-7500244 phases=1 bus1=2204819-7500244.4 bus2=2204819-7500244.0 R=0.5 X=0
New Reactor.NEUTRO_2204820-7497515 phases=1 bus1=2204820-7497515.4 bus2=2204820-7497515.0 R=0.5 X=0
New Reactor.NEUTRO_2204821-7497940v phases=1 bus1=2204821-7497940v.4 bus2=2204821-7497940v.0 R=0.5 X=0
New Reactor.NEUTRO_2204835-7500357 phases=1 bus1=2204835-7500357.4 bus2=2204835-7500357.0 R=0.5 X=0
New Reactor.NEUTRO_2204837-7497955v phases=1 bus1=2204837-7497955v.4 bus2=2204837-7497955v.0 R=0.5 X=0
New Reactor.NEUTRO_2204838-7500058v phases=1 bus1=2204838-7500058v.4 bus2=2204838-7500058v.0 R=0.5 X=0
New Reactor.NEUTRO_2204839-7497949v phases=1 bus1=2204839-7497949v.4 bus2=2204839-7497949v.0 R=0.5 X=0
New Reactor.NEUTRO_2204840-7497951 phases=1 bus1=2204840-7497951.4 bus2=2204840-7497951.0 R=0.5 X=0
New Reactor.NEUTRO_2204841-7500053v phases=1 bus1=2204841-7500053v.4 bus2=2204841-7500053v.0 R=0.5 X=0
New Reactor.NEUTRO_2204842-7498185v phases=1 bus1=2204842-7498185v.4 bus2=2204842-7498185v.0 R=0.5 X=0
New Reactor.NEUTRO_2204843-7499142 phases=1 bus1=2204843-7499142.4 bus2=2204843-7499142.0 R=0.5 X=0
New Reactor.NEUTRO_2204844-7497944 phases=1 bus1=2204844-7497944.4 bus2=2204844-7497944.0 R=0.5 X=0
New Reactor.NEUTRO_2204845-7498175v phases=1 bus1=2204845-7498175v.4 bus2=2204845-7498175v.0 R=0.5 X=0
New Reactor.NEUTRO_2204846-7497952v phases=1 bus1=2204846-7497952v.4 bus2=2204846-7497952v.0 R=0.5 X=0
New Reactor.NEUTRO_2204848-7498181v phases=1 bus1=2204848-7498181v.4 bus2=2204848-7498181v.0 R=0.5 X=0
New Reactor.NEUTRO_2204849-7497954 phases=1 bus1=2204849-7497954.4 bus2=2204849-7497954.0 R=0.5 X=0
New Reactor.NEUTRO_2204850-7500355v phases=1 bus1=2204850-7500355v.4 bus2=2204850-7500355v.0 R=0.5 X=0
New Reactor.NEUTRO_2204851-7499147v phases=1 bus1=2204851-7499147v.4 bus2=2204851-7499147v.0 R=0.5 X=0
New Reactor.NEUTRO_2204852-7498824 phases=1 bus1=2204852-7498824.4 bus2=2204852-7498824.0 R=0.5 X=0
New Reactor.NEUTRO_2204853-7500360 phases=1 bus1=2204853-7500360.4 bus2=2204853-7500360.0 R=0.5 X=0
New Reactor.NEUTRO_2204854-7498486v phases=1 bus1=2204854-7498486v.4 bus2=2204854-7498486v.0 R=0.5 X=0
New Reactor.NEUTRO_2204866-7498825v phases=1 bus1=2204866-7498825v.4 bus2=2204866-7498825v.0 R=0.5 X=0
New Reactor.NEUTRO_2204876-7497947v phases=1 bus1=2204876-7497947v.4 bus2=2204876-7497947v.0 R=0.5 X=0
New Reactor.NEUTRO_2204877-7498180v phases=1 bus1=2204877-7498180v.4 bus2=2204877-7498180v.0 R=0.5 X=0
New Reactor.NEUTRO_2204878-7497417v phases=1 bus1=2204878-7497417v.4 bus2=2204878-7497417v.0 R=0.5 X=0
New Reactor.NEUTRO_2204879-7499814v phases=1 bus1=2204879-7499814v.4 bus2=2204879-7499814v.0 R=0.5 X=0
New Reactor.NEUTRO_2204880-7499560v phases=1 bus1=2204880-7499560v.4 bus2=2204880-7499560v.0 R=0.5 X=0
New Reactor.NEUTRO_2204881-7497945v phases=1 bus1=2204881-7497945v.4 bus2=2204881-7497945v.0 R=0.5 X=0
New Reactor.NEUTRO_2204884-7499383 phases=1 bus1=2204884-7499383.4 bus2=2204884-7499383.0 R=0.5 X=0
New Reactor.NEUTRO_2204885-7497408v phases=1 bus1=2204885-7497408v.4 bus2=2204885-7497408v.0 R=0.5 X=0
New Reactor.NEUTRO_2204886-7498937 phases=1 bus1=2204886-7498937.4 bus2=2204886-7498937.0 R=0.5 X=0
New Reactor.NEUTRO_2204887-7497934 phases=1 bus1=2204887-7497934.4 bus2=2204887-7497934.0 R=0.5 X=0
New Reactor.NEUTRO_2204888-7499134 phases=1 bus1=2204888-7499134.4 bus2=2204888-7499134.0 R=0.5 X=0
New Reactor.NEUTRO_2204889-7500057v phases=1 bus1=2204889-7500057v.4 bus2=2204889-7500057v.0 R=0.5 X=0
New Reactor.NEUTRO_2204890-7499562v phases=1 bus1=2204890-7499562v.4 bus2=2204890-7499562v.0 R=0.5 X=0
New Reactor.NEUTRO_2204903-7499558v phases=1 bus1=2204903-7499558v.4 bus2=2204903-7499558v.0 R=0.5 X=0
New Reactor.NEUTRO_2205015-7498681v phases=1 bus1=2205015-7498681v.4 bus2=2205015-7498681v.0 R=0.5 X=0
New Reactor.NEUTRO_2205059-7500052 phases=1 bus1=2205059-7500052.4 bus2=2205059-7500052.0 R=0.5 X=0
New Reactor.NEUTRO_2205068-7497406 phases=1 bus1=2205068-7497406.4 bus2=2205068-7497406.0 R=0.5 X=0
New Reactor.NEUTRO_2205069-7500046 phases=1 bus1=2205069-7500046.4 bus2=2205069-7500046.0 R=0.5 X=0
New Reactor.NEUTRO_2205070-7498167 phases=1 bus1=2205070-7498167.4 bus2=2205070-7498167.0 R=0.5 X=0
New Reactor.NEUTRO_2205071-7500492 phases=1 bus1=2205071-7500492.4 bus2=2205071-7500492.0 R=0.5 X=0
New Reactor.NEUTRO_2205073-7500242v phases=1 bus1=2205073-7500242v.4 bus2=2205073-7500242v.0 R=0.5 X=0
New Reactor.NEUTRO_2205085-7499456 phases=1 bus1=2205085-7499456.4 bus2=2205085-7499456.0 R=0.5 X=0
New Reactor.NEUTRO_2205087-7500363v phases=1 bus1=2205087-7500363v.4 bus2=2205087-7500363v.0 R=0.5 X=0
New Reactor.NEUTRO_2205088-7497946v phases=1 bus1=2205088-7497946v.4 bus2=2205088-7497946v.0 R=0.5 X=0
New Reactor.NEUTRO_2205089-7497416v phases=1 bus1=2205089-7497416v.4 bus2=2205089-7497416v.0 R=0.5 X=0
New Reactor.NEUTRO_2205090-7498826v phases=1 bus1=2205090-7498826v.4 bus2=2205090-7498826v.0 R=0.5 X=0
New Reactor.NEUTRO_2205091-7498184v phases=1 bus1=2205091-7498184v.4 bus2=2205091-7498184v.0 R=0.5 X=0
New Reactor.NEUTRO_2205092-7500361v phases=1 bus1=2205092-7500361v.4 bus2=2205092-7500361v.0 R=0.5 X=0
New Reactor.NEUTRO_2205100-7499965 phases=1 bus1=2205100-7499965.4 bus2=2205100-7499965.0 R=0.5 X=0
New Reactor.NEUTRO_2205101-7499047 phases=1 bus1=2205101-7499047.4 bus2=2205101-7499047.0 R=0.5 X=0
New Reactor.NEUTRO_2205102-7499973 phases=1 bus1=2205102-7499973.4 bus2=2205102-7499973.0 R=0.5 X=0
New Reactor.NEUTRO_2205103-7498182v phases=1 bus1=2205103-7498182v.4 bus2=2205103-7498182v.0 R=0.5 X=0
New Reactor.NEUTRO_2205104-7498942v phases=1 bus1=2205104-7498942v.4 bus2=2205104-7498942v.0 R=0.5 X=0
New Reactor.NEUTRO_2205105-7498183v phases=1 bus1=2205105-7498183v.4 bus2=2205105-7498183v.0 R=0.5 X=0
New Reactor.NEUTRO_2205106-7499053 phases=1 bus1=2205106-7499053.4 bus2=2205106-7499053.0 R=0.5 X=0
New Reactor.NEUTRO_2205107-7497418v phases=1 bus1=2205107-7497418v.4 bus2=2205107-7497418v.0 R=0.5 X=0
New Reactor.NEUTRO_2205108-7497344v phases=1 bus1=2205108-7497344v.4 bus2=2205108-7497344v.0 R=0.5 X=0
New Reactor.NEUTRO_2205109-7499145v phases=1 bus1=2205109-7499145v.4 bus2=2205109-7499145v.0 R=0.5 X=0
New Reactor.NEUTRO_2205110-7499068v phases=1 bus1=2205110-7499068v.4 bus2=2205110-7499068v.0 R=0.5 X=0
New Reactor.NEUTRO_2205111-7498600v phases=1 bus1=2205111-7498600v.4 bus2=2205111-7498600v.0 R=0.5 X=0
New Reactor.NEUTRO_2205112-7498178v phases=1 bus1=2205112-7498178v.4 bus2=2205112-7498178v.0 R=0.5 X=0
New Reactor.NEUTRO_2205114-7499135v phases=1 bus1=2205114-7499135v.4 bus2=2205114-7499135v.0 R=0.5 X=0
New Reactor.NEUTRO_2205115-7498469 phases=1 bus1=2205115-7498469.4 bus2=2205115-7498469.0 R=0.5 X=0
New Reactor.NEUTRO_2205116-7499137 phases=1 bus1=2205116-7499137.4 bus2=2205116-7499137.0 R=0.5 X=0
New Reactor.NEUTRO_2205117-7499741v phases=1 bus1=2205117-7499741v.4 bus2=2205117-7499741v.0 R=0.5 X=0
New Reactor.NEUTRO_2205118-7498173v phases=1 bus1=2205118-7498173v.4 bus2=2205118-7498173v.0 R=0.5 X=0
New Reactor.NEUTRO_2205274-7497404 phases=1 bus1=2205274-7497404.4 bus2=2205274-7497404.0 R=0.5 X=0
New Reactor.NEUTRO_2205275-7497411v phases=1 bus1=2205275-7497411v.4 bus2=2205275-7497411v.0 R=0.5 X=0
New Reactor.NEUTRO_2205276-7500257v phases=1 bus1=2205276-7500257v.4 bus2=2205276-7500257v.0 R=0.5 X=0
New Reactor.NEUTRO_2205287-7497413v phases=1 bus1=2205287-7497413v.4 bus2=2205287-7497413v.0 R=0.5 X=0
New Reactor.NEUTRO_2205288-7498370v phases=1 bus1=2205288-7498370v.4 bus2=2205288-7498370v.0 R=0.5 X=0
New Reactor.NEUTRO_2205292-7500354v phases=1 bus1=2205292-7500354v.4 bus2=2205292-7500354v.0 R=0.5 X=0
New Reactor.NEUTRO_2205293-7500540 phases=1 bus1=2205293-7500540.4 bus2=2205293-7500540.0 R=0.5 X=0
New Reactor.NEUTRO_2205294-7500253v phases=1 bus1=2205294-7500253v.4 bus2=2205294-7500253v.0 R=0.5 X=0
New Reactor.NEUTRO_2205295-7497932v phases=1 bus1=2205295-7497932v.4 bus2=2205295-7497932v.0 R=0.5 X=0
New Reactor.NEUTRO_2205300-7500252 phases=1 bus1=2205300-7500252.4 bus2=2205300-7500252.0 R=0.5 X=0
New Reactor.NEUTRO_2205308-7497162v phases=1 bus1=2205308-7497162v.4 bus2=2205308-7497162v.0 R=0.5 X=0
New Reactor.NEUTRO_2205309-7499548v phases=1 bus1=2205309-7499548v.4 bus2=2205309-7499548v.0 R=0.5 X=0
New Reactor.NEUTRO_2205310-7497400 phases=1 bus1=2205310-7497400.4 bus2=2205310-7497400.0 R=0.5 X=0
New Reactor.NEUTRO_2205317-7498171v phases=1 bus1=2205317-7498171v.4 bus2=2205317-7498171v.0 R=0.5 X=0
New Reactor.NEUTRO_2205318-7499139v phases=1 bus1=2205318-7499139v.4 bus2=2205318-7499139v.0 R=0.5 X=0
New Reactor.NEUTRO_2205319-7497397v phases=1 bus1=2205319-7497397v.4 bus2=2205319-7497397v.0 R=0.5 X=0
New Reactor.NEUTRO_2205320-7499546v phases=1 bus1=2205320-7499546v.4 bus2=2205320-7499546v.0 R=0.5 X=0
New Reactor.NEUTRO_2205326-7498186v phases=1 bus1=2205326-7498186v.4 bus2=2205326-7498186v.0 R=0.5 X=0
New Reactor.NEUTRO_2205327-7500060v phases=1 bus1=2205327-7500060v.4 bus2=2205327-7500060v.0 R=0.5 X=0
New Reactor.NEUTRO_2205333-7498829v phases=1 bus1=2205333-7498829v.4 bus2=2205333-7498829v.0 R=0.5 X=0
New Reactor.NEUTRO_2205336-7498187v phases=1 bus1=2205336-7498187v.4 bus2=2205336-7498187v.0 R=0.5 X=0
New Reactor.NEUTRO_2205347-7498810v phases=1 bus1=2205347-7498810v.4 bus2=2205347-7498810v.0 R=0.5 X=0
New Reactor.NEUTRO_2205350-7498188v phases=1 bus1=2205350-7498188v.4 bus2=2205350-7498188v.0 R=0.5 X=0
New Reactor.NEUTRO_2205351-7498831v phases=1 bus1=2205351-7498831v.4 bus2=2205351-7498831v.0 R=0.5 X=0
New Reactor.NEUTRO_2782441-10862857v phases=1 bus1=2782441-10862857v.4 bus2=2782441-10862857v.0 R=0.5 X=0
New Reactor.NEUTRO_2782442-10863575 phases=1 bus1=2782442-10863575.4 bus2=2782442-10863575.0 R=0.5 X=0
New Reactor.NEUTRO_2782443-10863150v phases=1 bus1=2782443-10863150v.4 bus2=2782443-10863150v.0 R=0.5 X=0
New Reactor.NEUTRO_2782444-10862855 phases=1 bus1=2782444-10862855.4 bus2=2782444-10862855.0 R=0.5 X=0
New Reactor.NEUTRO_2782445-10863157 phases=1 bus1=2782445-10863157.4 bus2=2782445-10863157.0 R=0.5 X=0
New Reactor.NEUTRO_2782450-10863151v phases=1 bus1=2782450-10863151v.4 bus2=2782450-10863151v.0 R=0.5 X=0
New Reactor.NEUTRO_2782451-10862941v phases=1 bus1=2782451-10862941v.4 bus2=2782451-10862941v.0 R=0.5 X=0
New Reactor.NEUTRO_2782452-10863482v phases=1 bus1=2782452-10863482v.4 bus2=2782452-10863482v.0 R=0.5 X=0
New Reactor.NEUTRO_2782455-10863045v phases=1 bus1=2782455-10863045v.4 bus2=2782455-10863045v.0 R=0.5 X=0
New Reactor.NEUTRO_2782456-10863152v phases=1 bus1=2782456-10863152v.4 bus2=2782456-10863152v.0 R=0.5 X=0
New Reactor.NEUTRO_2782457-10863573 phases=1 bus1=2782457-10863573.4 bus2=2782457-10863573.0 R=0.5 X=0
New Reactor.NEUTRO_2782458-10862893 phases=1 bus1=2782458-10862893.4 bus2=2782458-10862893.0 R=0.5 X=0
New Reactor.NEUTRO_2782459-10863246v phases=1 bus1=2782459-10863246v.4 bus2=2782459-10863246v.0 R=0.5 X=0
New Reactor.NEUTRO_2782462-10863252v phases=1 bus1=2782462-10863252v.4 bus2=2782462-10863252v.0 R=0.5 X=0
New Reactor.NEUTRO_2782464-10863153v phases=1 bus1=2782464-10863153v.4 bus2=2782464-10863153v.0 R=0.5 X=0
New Reactor.NEUTRO_2782465-10863488 phases=1 bus1=2782465-10863488.4 bus2=2782465-10863488.0 R=0.5 X=0
New Reactor.NEUTRO_2782466-10862859 phases=1 bus1=2782466-10862859.4 bus2=2782466-10862859.0 R=0.5 X=0
New Reactor.NEUTRO_2782467-10863594v phases=1 bus1=2782467-10863594v.4 bus2=2782467-10863594v.0 R=0.5 X=0
New Reactor.NEUTRO_2782471-10863381v phases=1 bus1=2782471-10863381v.4 bus2=2782471-10863381v.0 R=0.5 X=0
New Reactor.NEUTRO_2782472-10862927v phases=1 bus1=2782472-10862927v.4 bus2=2782472-10862927v.0 R=0.5 X=0
New Reactor.NEUTRO_2782474-10863366v phases=1 bus1=2782474-10863366v.4 bus2=2782474-10863366v.0 R=0.5 X=0
New Reactor.NEUTRO_2782476-10863383v phases=1 bus1=2782476-10863383v.4 bus2=2782476-10863383v.0 R=0.5 X=0
New Reactor.NEUTRO_2782477-10863493 phases=1 bus1=2782477-10863493.4 bus2=2782477-10863493.0 R=0.5 X=0
New Reactor.NEUTRO_2782480-10862819 phases=1 bus1=2782480-10862819.4 bus2=2782480-10862819.0 R=0.5 X=0
New Reactor.NEUTRO_2782481-10862817 phases=1 bus1=2782481-10862817.4 bus2=2782481-10862817.0 R=0.5 X=0
New Reactor.NEUTRO_2782482-10862992 phases=1 bus1=2782482-10862992.4 bus2=2782482-10862992.0 R=0.5 X=0
New Reactor.NEUTRO_2782483-10863278v phases=1 bus1=2782483-10863278v.4 bus2=2782483-10863278v.0 R=0.5 X=0
New Reactor.NEUTRO_2782485-10863281v phases=1 bus1=2782485-10863281v.4 bus2=2782485-10863281v.0 R=0.5 X=0
New Reactor.NEUTRO_2782486-10863365 phases=1 bus1=2782486-10863365.4 bus2=2782486-10863365.0 R=0.5 X=0
New Reactor.NEUTRO_2782487-10863577 phases=1 bus1=2782487-10863577.4 bus2=2782487-10863577.0 R=0.5 X=0
New Reactor.NEUTRO_2782488-10863158v phases=1 bus1=2782488-10863158v.4 bus2=2782488-10863158v.0 R=0.5 X=0
New Reactor.NEUTRO_2782493-10862815 phases=1 bus1=2782493-10862815.4 bus2=2782493-10862815.0 R=0.5 X=0
New Reactor.NEUTRO_2782494-10863276 phases=1 bus1=2782494-10863276.4 bus2=2782494-10863276.0 R=0.5 X=0
New Reactor.NEUTRO_2782495-10862945 phases=1 bus1=2782495-10862945.4 bus2=2782495-10862945.0 R=0.5 X=0
New Reactor.NEUTRO_2782496-10863254v phases=1 bus1=2782496-10863254v.4 bus2=2782496-10863254v.0 R=0.5 X=0
New Reactor.NEUTRO_2782497-10863339v phases=1 bus1=2782497-10863339v.4 bus2=2782497-10863339v.0 R=0.5 X=0
New Reactor.NEUTRO_2782498-10863280 phases=1 bus1=2782498-10863280.4 bus2=2782498-10863280.0 R=0.5 X=0
New Reactor.NEUTRO_2782502-10863484v phases=1 bus1=2782502-10863484v.4 bus2=2782502-10863484v.0 R=0.5 X=0
New Reactor.NEUTRO_2782503-10862943 phases=1 bus1=2782503-10862943.4 bus2=2782503-10862943.0 R=0.5 X=0
New Reactor.NEUTRO_2782504-10863380v phases=1 bus1=2782504-10863380v.4 bus2=2782504-10863380v.0 R=0.5 X=0
New Reactor.NEUTRO_2782505-10863596v phases=1 bus1=2782505-10863596v.4 bus2=2782505-10863596v.0 R=0.5 X=0
New Reactor.NEUTRO_2782506-10863377v phases=1 bus1=2782506-10863377v.4 bus2=2782506-10863377v.0 R=0.5 X=0
New Reactor.NEUTRO_2782510-12693770 phases=1 bus1=2782510-12693770.4 bus2=2782510-12693770.0 R=0.5 X=0
New Reactor.NEUTRO_2782511-10863265 phases=1 bus1=2782511-10863265.4 bus2=2782511-10863265.0 R=0.5 X=0
New Reactor.NEUTRO_2782512-10863490 phases=1 bus1=2782512-10863490.4 bus2=2782512-10863490.0 R=0.5 X=0
New Reactor.NEUTRO_2782513-10862811 phases=1 bus1=2782513-10862811.4 bus2=2782513-10862811.0 R=0.5 X=0
New Reactor.NEUTRO_2782514-10863041v phases=1 bus1=2782514-10863041v.4 bus2=2782514-10863041v.0 R=0.5 X=0
New Reactor.NEUTRO_2782516-10863042v phases=1 bus1=2782516-10863042v.4 bus2=2782516-10863042v.0 R=0.5 X=0
New Reactor.NEUTRO_2782520-10863047v phases=1 bus1=2782520-10863047v.4 bus2=2782520-10863047v.0 R=0.5 X=0
New Reactor.NEUTRO_2782521-10863545 phases=1 bus1=2782521-10863545.4 bus2=2782521-10863545.0 R=0.5 X=0
New Reactor.NEUTRO_2782522-10863046v phases=1 bus1=2782522-10863046v.4 bus2=2782522-10863046v.0 R=0.5 X=0
New Reactor.NEUTRO_2782523-10863595v phases=1 bus1=2782523-10863595v.4 bus2=2782523-10863595v.0 R=0.5 X=0
New Reactor.NEUTRO_2782524-10863547v phases=1 bus1=2782524-10863547v.4 bus2=2782524-10863547v.0 R=0.5 X=0
New Reactor.NEUTRO_2782525-10863483v phases=1 bus1=2782525-10863483v.4 bus2=2782525-10863483v.0 R=0.5 X=0
New Reactor.NEUTRO_2782526-10863277v phases=1 bus1=2782526-10863277v.4 bus2=2782526-10863277v.0 R=0.5 X=0
New Reactor.NEUTRO_2782533-10863567 phases=1 bus1=2782533-10863567.4 bus2=2782533-10863567.0 R=0.5 X=0
New Reactor.NEUTRO_2782534-10862809 phases=1 bus1=2782534-10862809.4 bus2=2782534-10862809.0 R=0.5 X=0
New Reactor.NEUTRO_2782537-10863382v phases=1 bus1=2782537-10863382v.4 bus2=2782537-10863382v.0 R=0.5 X=0
New Reactor.NEUTRO_2782538-10862947 phases=1 bus1=2782538-10862947.4 bus2=2782538-10862947.0 R=0.5 X=0
New Reactor.NEUTRO_2782654-10864636v phases=1 bus1=2782654-10864636v.4 bus2=2782654-10864636v.0 R=0.5 X=0
New Reactor.NEUTRO_2782655-10864724v phases=1 bus1=2782655-10864724v.4 bus2=2782655-10864724v.0 R=0.5 X=0
New Reactor.NEUTRO_2782656-10864986v phases=1 bus1=2782656-10864986v.4 bus2=2782656-10864986v.0 R=0.5 X=0
New Reactor.NEUTRO_2782657-10864963 phases=1 bus1=2782657-10864963.4 bus2=2782657-10864963.0 R=0.5 X=0
...
